20

O 0.149301 -1.34992 1.40738
H -0.38371 -0.539802 1.51614
O 1.50502 -1.73578 -1.25669
H 1.64096 -0.770893 -1.30705
O -1.40959 -1.72555 -1.09093
H -1.18685 -1.41115 -1.98375
O 0.188251 -3.94886 0.173249
H 0.183901 -4.06263 1.13835
O 0.0500204 3.91506 -0.296719
H -0.545637 4.09334 -1.04397
O 1.55294 1.3884 -6.71111e-05
H 1.59099 0.534535 0.470226
O -1.33184 1.53211 -1.00205
H -1.53522 0.579675 -0.921886
O -0.625516 1.86016 1.8433
H 0.126415 1.66136 2.42557
Al 0.111525 -2.17337 -0.197362
Al -0.0809656 2.15332 0.126257
X 30.000 0.000 0.000
X -30.000 0.000 0.000
