12
charge 0
 Na         0.0749578400        -1.0165215800        -0.5355126600
  O        -0.0911800300         1.2874683600         0.6944795000
  H        -0.1511990400         2.1285683000         1.1449609600
  O         0.7824238600        -0.9236489000         1.5796292100
  O        -1.9529654100        -0.1019743600        -0.3275800000
  O         1.1842393700         0.7073245700        -1.4206897900
  H         0.4770003200         0.0384596300         1.4643636700
  H        -1.3978722100         0.6178308300         0.1255601500
  H         0.7857534400         1.1671316500        -0.6071880800
  H         0.4601106000        -1.2305274800         2.4266768300
  H        -2.5596659200         0.3349145000        -0.9247481700
  H         2.0994551700         0.9781154900        -1.4881646000
