27
charge -3
Al -1.67241 -0.44333 1.32378
O 1.54015 -0.445898 2.97015
Al 2.39665 0.0364302 1.50329
O 0.821993 0.648593 -1.73756
Al -0.986336 0.473788 -1.91423
O -1.02883 0.680259 0.0723624
O -0.685063 -1.90546 1.22819
H 0.193967 -1.8059 0.835605
O -1.57237 0.287149 2.92293
O -1.75627 -1.15502 -1.75411
O -2.00082 1.94584 -2.12457
H -2.08911 1.98154 -3.0789
H -1.45523 -1.66718 -0.998255
O 2.09762 -1.19103 0.266243
H 1.69983 -0.779438 -0.516684
O 4.11446 0.236734 1.97108
H 4.43144 0.994819 1.47914
O -0.828528 0.260803 -3.81176
H -1.09283 -0.653714 -3.92481
H -0.655788 0.36949 3.20504
O -3.3554 -0.786493 0.944824
H -3.41232 -0.85999 -0.0138145
O 1.91613 1.58743 0.797061
H 1.66579 1.47621 -0.133397
H 0.840882 -1.07536 2.76162
H -0.268483 1.19801 0.366507
H 1.14087 0.591713 -2.63973
