21

Al -1.01026 -0.524944 1.41168
O 0.73051 -0.654395 1.3496
Al 1.80044 -0.191229 0.049271
O 0.924498 0.483197 -1.3027
Al -0.798876 0.716344 -1.46352
O -1.66343 0.170967 -0.0491123
O -1.58008 -2.20947 1.79424
H -0.78152 -2.72543 1.66935
O -1.68637 0.485703 2.75837
H -2.01622 1.25587 2.29176
O -1.59403 -0.133849 -2.85542
O -0.985605 2.48191 -1.85869
H -0.107735 2.82414 -1.68033
H -2.10482 -0.815401 -2.4142
O 2.77647 -1.6841 -0.29699
H 2.29038 -2.36199 0.175843
O 3.05471 1.05842 0.455816
H 2.75194 1.82425 -0.0349809
X 30.000 0.000 0.000
X -30.000 0.000 0.000
X 0.000 30.000 0.000
