21

Al -0.500386 -0.223367 1.73507
O 1.24075 -0.499189 1.25639
Al 1.72667 -0.265031 -0.484639
O 0.530058 1.05062 -0.837653
Al -1.20119 0.516852 -1.18451
O -1.28608 -0.725969 0.168263
O -0.718557 -1.29576 3.0292
H -1.3602 -1.23501 3.73133
O -0.715967 1.47057 1.74092
H -1.46867 1.90064 1.32411
O -1.44759 -0.184213 -2.70774
O -2.16277 1.84401 -0.690072
H -2.85761 2.22039 -1.2254
H -0.825751 -0.833029 -3.03538
O 1.05093 -1.56658 -1.38187
H 1.57629 -2.13616 -1.94038
O 3.38164 0.0334334 -0.651328
H 3.90729 0.777912 -0.374917
H 1.78948 -0.997281 1.86632
H -1.14243 -1.62703 -0.14355
H 0.484097 1.7742 -0.194176
