28

Al 2.60482 0.375882 -0.135185
Al -1.12837 2.28985 -0.654285
Al -0.105875 -0.191404 0.0575629
O 2.58206 1.2703 -1.61017
H 3.32411 1.75993 -1.95659
O 4.13306 0.138942 0.557425
H 4.32641 -0.23526 1.4122
O -0.0569002 3.28783 0.257809
H -0.00207521 4.23702 0.177269
O 1.51206 -1.0303 -0.434271
O -0.168578 0.982568 -1.45234
O 1.21746 0.909949 0.892883
O -2.33715 3.10488 -1.51796
H -2.94676 2.73217 -2.14846
O -1.56191 0.939311 0.46356
O -0.439152 -1.27908 1.5656
O -1.13811 -1.56813 -0.721818
H -2.01959 0.937005 1.30232
H 0.691158 1.18774 -1.85997
H 1.56838 -1.75029 -1.05989
H 0.995186 1.85513 0.960116
Al -1.42328 -2.56919 0.76044
H 0.249596 -1.45646 2.20573
H -1.81327 -1.36939 -1.37007
O -0.519734 -4.00988 0.874818
H -0.85433 -4.89479 0.758575
O -3.1007 -2.52672 1.05919
H -3.58851 -3.12761 1.61551
