55

Al -0.0290317 -0.234172 -0.441066
O 0.89547 0.0254612 1.2299
H 2.41812 -0.377581 -0.717756
O 0.151016 1.58546 -0.876086
H 0.64548 0.600419 1.96214
O -1.6885 0.0694842 0.422063
H -2.48796 -0.44811 0.28745
O 1.65797 -0.590445 -1.27068
H 0.614629 2.05731 -1.57591
O -1.09255 -2.72262 3.20464
H -0.156513 -2.66955 2.97215
H -1.38086 -1.80309 3.28747
H 1.16559 -0.549891 -4.20911
O 0.560911 -1.30212 -4.20744
O 1.56228 2.99048 -2.75335
O -3.5199 0.225727 -1.77474
H -2.92183 0.753558 -1.23708
H -3.82085 -0.483851 -1.19216
O -0.204994 -2.12782 -0.00394478
H 0.431702 -2.45188 0.646636
H -0.984066 -2.68901 0.109483
H 2.25782 3.35217 -1.08588
H 1.00359 -1.97751 -3.68843
O 2.54955 3.40434 -0.16735
O 0.43935 1.89962 3.20068
H 1.25895 2.24672 3.55887
O 3.25835 0.809301 0.408496
H 2.44191 0.52016 0.838451
H 3.09357 1.72686 0.152676
H 2.02202 2.22225 -3.11967
O -0.970863 -0.54153 -2.10004
H -1.89147 -0.318853 -2.29676
H -0.588025 -0.80036 -2.9493
O -3.83487 -1.59643 0.230882
H -3.30757 -2.39478 0.3762
H -4.29091 -1.44488 1.06177
H 0.92894 3.24723 -3.42632
O -2.21998 -3.62171 1.07016
H -1.82204 -3.26412 1.88306
H -2.21006 -4.57339 1.18785
H -0.833242 0.565555 3.40662
O 1.41156 -2.32576 2.21208
O 2.41144 0.557526 -3.4443
H 2.00715 0.118677 -2.67522
H 3.35721 0.494611 -3.29435
H -1.6014 0.114532 2.15962
O -1.52227 -0.0413698 3.11112
H 1.74425 3.54182 0.345303
H 2.34476 -2.33335 2.4348
H 0.241653 2.46214 2.43568
H 1.2296 -1.418 1.91843
O 0.0482873 3.30258 1.02689
H 0.0946923 2.62132 0.332352
H -0.86807 3.58686 1.03303
X 30.000 0.000 0.000
