12

Al -0.0255145 0.225825 -0.252022
O -0.372961 -1.71011 0.110497
H -0.925273 -1.50979 0.88409
H 0.5347 -1.85808 0.423433
O -1.22522 0.295836 1.12134
H -1.51394 1.18999 1.29118
O 1.62817 -0.385323 0.219022
H 2.29995 0.280243 0.0868161
O 0.366461 1.99207 -0.345828
H 0.707759 2.33667 0.478648
O -0.600109 0.0183108 -1.91182
H -0.874009 -0.875641 -2.10535
