13
charge 0
Al 0.248894 0.0582754 0.146802
O 1.86914 0.23315 -0.62869
H 2.35849 -0.518404 -0.95889
O 0.272061 1.7967 0.694405
H 1.12674 2.1701 0.465933
O 0.39787 -1.69457 0.667352
H 1.27754 -2.05704 0.564926
O -1.54513 -0.0263696 1.01807
H -1.48202 -0.0299996 1.97385
O -0.860891 0.0131814 -1.37301
H -0.317126 0.0806794 -2.16026
Na -1.60896 -1.81944 -0.226522
Na -1.73662 1.79373 -0.183971
