13
charge 0
O -1.7598 -0.379179 0.286866
Al -0.409248 0.768713 -0.0121358
O 0.994518 -0.257442 0.216082
O -0.0654751 1.91897 1.33236
H 1.30618 -1.20469 -0.174016
H -0.515043 2.76357 1.32382
O -0.710841 1.77097 -1.40442
H -0.900599 1.42457 -2.27482
H -2.65466 -0.0986847 0.0975422
Na 1.8738 1.0096 1.67795
Na -0.526651 -2.18939 0.365993
O 1.36575 -2.58394 -0.410407
H 2.00207 -2.94307 -1.02483
