12
charge -1
 Al         0.0052514800         0.1695329700         0.2502049600
  O        -1.5841588100         0.5842166200        -0.3485433000
  H        -1.6035835500         1.3441290500        -0.9277278100
  O         1.0710662800         1.5405636800         0.1993553100
  H         1.9375600600         1.3552748000        -0.1760687200
  O        -0.2183351200        -0.7134714100         1.7459349900
  H        -1.0599975600        -0.5732904300         2.1753173800
  O         0.8954000000        -1.0483000000        -0.7710000000
  H         2.1144000000        -0.6964000000        -0.8965000000
  H         0.8674390000        -1.9355650900        -0.4104292200
  O         3.3334000000        -0.3445000000        -1.0221000000
  H         3.6814523100        -0.4008555200        -0.1299724100
