10

Al -0.0677726 1.40855 -0.0018107
O -0.172161 3.08628 -0.0099917
H 0.495018 3.77121 -0.0228067
O 1.25148 0.335797 -0.0112657
H 2.19772 0.469043 -0.0247397
O -1.3963 0.345899 0.0243253
H -2.33316 0.53823 0.0347543
Na -0.0925656 -1.68636 0.0177013
O 0.0385394 -3.65832 -0.0003437
H 0.0792034 -4.61033 -0.0058227
