12
charge -1
 Al         0.0034462800        -0.0656951600        -0.2193755900
  O        -0.3440010300        -2.0016344000         0.1431428500
  H        -0.8963125600        -1.8013124100         0.9167358300
  H         0.5636595800        -2.1496019700         0.4560789600
  O        -1.1962640500         0.0043162100         1.1539849400
  H        -1.4849824600         0.8984738100         1.3238237800
  O         1.6571279200        -0.6768431300         0.2516680700
  H         2.3289088200        -0.0112769100         0.1194622100
  O         0.3954222600         1.7005530100        -0.3131824900
  H         0.7367185100         2.0451524300         0.5112944600
  O        -0.5711493100        -0.2732086200        -1.8791758600
  H        -0.8450485000        -1.1671609500        -2.0727060000
