10
charge 0
O 0.053143 2.02193 0.0037841
Al -0.026929 0.300324 -0.0568479
O 1.45971 -0.527003 0.501037
O -0.27819 -0.642308 -1.5528
H 2.07052 -0.137745 1.12465
H 0.222469 -0.438833 -2.34187
O -1.28089 -0.602872 0.846783
H -1.5909 -0.320093 1.7052
H -0.659376 2.60868 -0.244764
Na 0.030435 -2.26208 0.0148251
