      54
charge -1
 Al         7.1161849095        7.8835567432        6.5784654593
  O         8.2505363492        7.6410128432        7.9862192676
  H         9.3031686080        7.4183144629        5.6563075392
  O         6.3197946546        9.3761892438        5.9604674266
  H         8.0157883375        7.5374878844        8.9385088327
  O         5.7835109516        7.0370999598        7.3989140670
  H         4.8903543997        6.9649818741        7.0366574945
  O         8.3988564285        7.6694891178        5.3341894750
  H         6.8351896620        9.5625417732        5.1604632583
  O         5.7746875893        4.5138519820       10.2037288459
  H         6.7513381640        4.5016024117       10.1792329027
  H         5.5851548483        5.4717047672       10.2104463085
  H         9.0039149679        6.0334363107        2.5505561111
  O         8.1323693540        5.5922603230        2.5334830143
  O         7.9384769455       11.0150244962        3.6976884089
  O         2.9881136551        8.3126189818        5.5980013883
  H         3.9642816507        8.4815050710        5.5781191915
  H         2.9685232968        7.3388369334        5.6090673611
  O         7.2291900407        4.5133377505        5.9631952747
  H         7.8572901965        4.5166208303        6.7151194744
  H         6.3713438974        4.5243381111        6.4338987415
  H         9.4448698581       11.0091085314        6.0720214443
  H         8.2848969702        4.6149072921        2.5671369523
  O         9.4766683410       11.0136339357        7.0443054602
  O         8.3885066351        9.3925265136       10.1887846255
  H         9.3702565876        9.3580640413       10.2128471300
  O        10.6362917233        7.0397016225        7.2246663326
  H         9.6268631927        7.0767408906        7.5125898838
  H        10.7666021853        8.0025391357        7.1983657615
  H         8.9168070253       10.9993764046        3.6953052756
  O         5.7819922293        7.0394589755        3.7024086949
  H         6.1233343496        7.9514438927        3.6959732339
  H         6.6102717911        6.5098833212        3.6873633265
  O         2.9473543729        5.6092258603        6.9509139339
  H         3.0286814649        4.6243305354        7.0525218110
  H         1.9570752408        5.7588717834        7.0104449808
  H         7.7255815385       11.0073412568        2.7355624559
  O         4.1561108675        2.8878497561        7.9410507797
  H         4.2796834564        2.9479790548        8.9176037079
  H         4.1599282764        1.9197191758        7.7633276096
  H         6.5980250640        8.2103141392       10.2270515771
  O         8.4027612416        4.5176200053        9.0395506362
  O         9.4884766632        8.1245957145        2.5974023742
  H         9.3766604638        8.0644760607        3.6043052952
  H        10.4576364081        8.2156402767        2.5234851648
  H         5.8808737158        7.3154357653        9.1770162172
  O         6.0462451398        7.4083472307       10.1851309651
  H         8.5253340453       11.0186178414        7.3172487924
  H         9.3914407956        4.5240247188        9.0475115786
  H         8.2648859443        9.3895025766        9.1913583471
  H         8.1810742416        5.4733857421        9.0319787999
  O         6.9510074201       11.0194667033        8.0463253531
  H         6.2224004236       10.9866058813        7.3950469494
  H         6.6071551754       11.0211350159        8.9662089613
