16
charge 0
  O        -0.6502175400        -1.3119473200         0.9606287000
 Al         0.0526654000         0.0064064700        -0.0370095200
  O         0.3808562200        -1.3337903000        -1.5337439300
  H         0.2609548200        -2.1604473400        -1.0466627600
  O        -0.1134037200         1.3646407100         1.4826638100
  H         0.2438286300         2.1120710300         0.9762376500
  O        -1.4562867300         0.4602526800        -0.8831133000
  O         1.7148998400        -0.7869849900         0.8805156900
  H         1.3498290700        -1.1575846900         1.6945293600
  O         1.2073929500         1.2732060700        -0.5894908800
  H        -1.6033634900        -1.3818435300         0.9308978200
  H         2.3233921700        -0.0661318800         1.0699734900
  H        -1.4496219100         1.2674774700        -1.3955466000
  H         1.5752007300         1.2595671900        -1.4697381600
  H        -1.0521508400         1.5160519600         1.6331253000
  H        -0.4773456200        -1.1451635300        -1.9479266800
