192
 i =       70, time =    -1678.765, E =         0.0000000000
Al         0.7170000000         8.0680000000         0.6010000000
O         0.7030000000         3.4720000000         0.6100000000
O         0.6970000000         0.8960000000         0.5560000000
H         2.1400000000         6.1380000000         1.2940000000
Al         0.7170000000         3.7820000000         2.4690000000
Al         2.1400000000         2.1360000000         0.6010000000
Al         2.1400000000         9.7150000000         2.4700000000
O         0.7030000000         8.3790000000         2.4780000000
O         2.1410000000         9.3980000000         0.6110000000
O         2.1410000000         2.4530000000         2.4790000000
O         0.6970000000        10.9540000000         2.4240000000
O         2.1420000000         6.8230000000         0.5550000000
O         2.1420000000         5.0270000000         2.4240000000
H         2.1400000000         5.7120000000         3.1620000000
H         0.6960000000         0.2120000000         1.2960000000
H         0.6960000000        11.6390000000         3.1650000000
Al         0.7170000000         8.0680000000         4.3380000000
O         0.7030000000         3.4720000000         4.3470000000
O         0.6970000000         0.8960000000         4.2920000000
H         2.1400000000         6.1380000000         5.0310000000
Al         0.7170000000         3.7820000000         6.2060000000
Al         2.1400000000         2.1360000000         4.3380000000
Al         2.1400000000         9.7150000000         6.2060000000
O         0.7030000000         8.3790000000         6.2150000000
O         2.1410000000         9.3980000000         4.3470000000
O         2.1410000000         2.4530000000         6.2150000000
O         0.6970000000        10.9540000000         6.1610000000
O         2.1420000000         6.8230000000         4.2920000000
O         2.1420000000         5.0270000000         6.1600000000
H         2.1400000000         5.7120000000         6.8990000000
H         0.6960000000         0.2120000000         5.0330000000
H         0.6960000000        11.6390000000         6.9010000000
Al         0.7170000000         8.0680000000         8.0740000000
O         0.7030000000         3.4720000000         8.0830000000
O         0.6970000000         0.8960000000         8.0290000000
H         2.1400000000         6.1380000000         8.7670000000
Al         0.7170000000         3.7820000000         9.9420000000
Al         2.1400000000         2.1360000000         8.0740000000
Al         2.1400000000         9.7150000000         9.9430000000
O         0.7030000000         8.3790000000         9.9510000000
O         2.1410000000         9.3980000000         8.0840000000
O         2.1410000000         2.4530000000         9.9520000000
O         0.6970000000        10.9540000000         9.8970000000
O         2.1420000000         6.8230000000         8.0280000000
O         2.1420000000         5.0270000000         9.8970000000
H         2.1400000000         5.7120000000        10.6360000000
H         0.6960000000         0.2120000000         8.7690000000
H         0.6960000000        11.6390000000        10.6380000000
Al         3.5810000000         8.0610000000         0.6010000000
O         3.5800000000         3.4730000000         0.6110000000
O         3.5790000000         0.8980000000         0.5550000000
H         5.0250000000         6.1370000000         1.2960000000
Al         3.5810000000         3.7890000000         2.4700000000
Al         5.0040000000         2.1430000000         0.6010000000
Al         5.0040000000         9.7080000000         2.4690000000
O         3.5800000000         8.3780000000         2.4790000000
O         5.0180000000         9.3970000000         0.6100000000
O         5.0180000000         2.4540000000         2.4780000000
O         3.5790000000        10.9520000000         2.4240000000
O         5.0240000000         6.8210000000         0.5560000000
O         5.0240000000         5.0290000000         2.4240000000
H         5.0250000000         5.7130000000         3.1650000000
H         3.5810000000         0.2130000000         1.2940000000
H         3.5810000000        11.6380000000         3.1620000000
Al         3.5810000000         8.0610000000         4.3380000000
O         3.5800000000         3.4730000000         4.3470000000
O         3.5790000000         0.8980000000         4.2920000000
H         5.0250000000         6.1370000000         5.0330000000
Al         3.5810000000         3.7890000000         6.2060000000
Al         5.0040000000         2.1430000000         4.3380000000
Al         5.0040000000         9.7080000000         6.2060000000
O         3.5800000000         8.3780000000         6.2150000000
O         5.0180000000         9.3970000000         4.3470000000
O         5.0180000000         2.4540000000         6.2150000000
O         3.5790000000        10.9520000000         6.1600000000
O         5.0240000000         6.8210000000         4.2920000000
O         5.0240000000         5.0290000000         6.1610000000
H         5.0250000000         5.7130000000         6.9010000000
H         3.5810000000         0.2130000000         5.0310000000
H         3.5810000000        11.6380000000         6.8990000000
Al         3.5810000000         8.0610000000         8.0740000000
O         3.5800000000         3.4730000000         8.0840000000
O         3.5790000000         0.8980000000         8.0280000000
H         5.0250000000         6.1370000000         8.7690000000
Al         3.5810000000         3.7890000000         9.9430000000
Al         5.0040000000         2.1430000000         8.0740000000
Al         5.0040000000         9.7080000000         9.9420000000
O         3.5800000000         8.3780000000         9.9520000000
O         5.0180000000         9.3970000000         8.0830000000
O         5.0180000000         2.4540000000         9.9510000000
O         3.5790000000        10.9520000000         9.8970000000
O         5.0240000000         6.8210000000         8.0290000000
O         5.0240000000         5.0290000000         9.8970000000
H         5.0250000000         5.7130000000        10.6380000000
H         3.5810000000         0.2130000000         8.7670000000
H         3.5810000000        11.6380000000        10.6360000000
Al         6.4380000000         8.0680000000         0.6010000000
O         6.4240000000         3.4720000000         0.6100000000
O         6.4180000000         0.8960000000         0.5560000000
H         7.8610000000         6.1380000000         1.2940000000
Al         6.4380000000         3.7820000000         2.4690000000
Al         7.8600000000         2.1360000000         0.6010000000
Al         7.8600000000         9.7150000000         2.4700000000
O         6.4240000000         8.3790000000         2.4780000000
O         7.8620000000         9.3980000000         0.6110000000
O         7.8620000000         2.4530000000         2.4790000000
O         6.4180000000        10.9540000000         2.4240000000
O         7.8630000000         6.8230000000         0.5550000000
O         7.8630000000         5.0270000000         2.4240000000
H         7.8610000000         5.7120000000         3.1620000000
H         6.4170000000         0.2120000000         1.2960000000
H         6.4170000000        11.6390000000         3.1650000000
Al         6.4380000000         8.0680000000         4.3380000000
O         6.4240000000         3.4720000000         4.3470000000
O         6.4180000000         0.8960000000         4.2920000000
H         7.8610000000         6.1380000000         5.0310000000
Al         6.4380000000         3.7820000000         6.2060000000
Al         7.8600000000         2.1360000000         4.3380000000
Al         7.8600000000         9.7150000000         6.2060000000
O         6.4240000000         8.3790000000         6.2150000000
O         7.8620000000         9.3980000000         4.3470000000
O         7.8620000000         2.4530000000         6.2150000000
O         6.4180000000        10.9540000000         6.1610000000
O         7.8630000000         6.8230000000         4.2920000000
O         7.8630000000         5.0270000000         6.1600000000
H         7.8610000000         5.7120000000         6.8990000000
H         6.4170000000         0.2120000000         5.0330000000
H         6.4170000000        11.6390000000         6.9010000000
Al         6.4380000000         8.0680000000         8.0740000000
O         6.4240000000         3.4720000000         8.0830000000
O         6.4180000000         0.8960000000         8.0290000000
H         7.8610000000         6.1380000000         8.7670000000
Al         6.4380000000         3.7820000000         9.9420000000
Al         7.8600000000         2.1360000000         8.0740000000
Al         7.8600000000         9.7150000000         9.9430000000
O         6.4240000000         8.3790000000         9.9510000000
O         7.8620000000         9.3980000000         8.0840000000
O         7.8620000000         2.4530000000         9.9520000000
O         6.4180000000        10.9540000000         9.8970000000
O         7.8630000000         6.8230000000         8.0280000000
O         7.8630000000         5.0270000000         9.8970000000
H         7.8610000000         5.7120000000        10.6360000000
H         6.4170000000         0.2120000000         8.7690000000
H         6.4170000000        11.6390000000        10.6380000000
Al         9.3020000000         8.0610000000         0.6010000000
O         9.3010000000         3.4730000000         0.6110000000
O         9.3000000000         0.8980000000         0.5550000000
H        10.7460000000         6.1370000000         1.2960000000
Al         9.3020000000         3.7890000000         2.4700000000
Al        10.7250000000         2.1430000000         0.6010000000
Al        10.7250000000         9.7080000000         2.4690000000
O         9.3010000000         8.3780000000         2.4790000000
O        10.7390000000         9.3970000000         0.6100000000
O        10.7390000000         2.4540000000         2.4780000000
O         9.3000000000        10.9520000000         2.4240000000
O        10.7450000000         6.8210000000         0.5560000000
O        10.7450000000         5.0290000000         2.4240000000
H        10.7460000000         5.7130000000         3.1650000000
H         9.3020000000         0.2130000000         1.2940000000
H         9.3020000000        11.6380000000         3.1620000000
Al         9.3020000000         8.0610000000         4.3380000000
O         9.3010000000         3.4730000000         4.3470000000
O         9.3000000000         0.8980000000         4.2920000000
H        10.7460000000         6.1370000000         5.0330000000
Al         9.3020000000         3.7890000000         6.2060000000
Al        10.7250000000         2.1430000000         4.3380000000
Al        10.7250000000         9.7080000000         6.2060000000
O         9.3010000000         8.3780000000         6.2150000000
O        10.7390000000         9.3970000000         4.3470000000
O        10.7390000000         2.4540000000         6.2150000000
O         9.3000000000        10.9520000000         6.1600000000
O        10.7450000000         6.8210000000         4.2920000000
O        10.7450000000         5.0290000000         6.1610000000
H        10.7460000000         5.7130000000         6.9010000000
H         9.3020000000         0.2130000000         5.0310000000
H         9.3020000000        11.6380000000         6.8990000000
Al         9.3020000000         8.0610000000         8.0740000000
O         9.3010000000         3.4730000000         8.0840000000
O         9.3000000000         0.8980000000         8.0280000000
H        10.7460000000         6.1370000000         8.7690000000
Al         9.3020000000         3.7890000000         9.9430000000
Al        10.7250000000         2.1430000000         8.0740000000
Al        10.7250000000         9.7080000000         9.9420000000
O         9.3010000000         8.3780000000         9.9520000000
O        10.7390000000         9.3970000000         8.0830000000
O        10.7390000000         2.4540000000         9.9510000000
O         9.3000000000        10.9520000000         9.8970000000
O        10.7450000000         6.8210000000         8.0290000000
O        10.7450000000         5.0290000000         9.8970000000
H        10.7460000000         5.7130000000        10.6380000000
H         9.3020000000         0.2130000000         8.7670000000
H         9.3020000000        11.6380000000        10.6360000000
