20
charge 0
Al 1.19849 -1.09522 -0.174036
Al -1.90753 0.399504 0.291627
O -1.43312 1.65618 1.47671
O -2.86079 -0.981922 0.92806
O 2.09075 -0.501627 1.24495
O 2.1643 -0.516944 -1.53513
H -2.0693 2.30998 1.7627
H -3.81502 -0.912331 0.908283
H 3.0462 -0.549719 1.26721
H 1.94823 -0.741501 -2.44014
O -2.85622 1.04974 -1.01769
O 0.793491 -2.833 -0.172324
H -2.63052 1.85702 -1.4765
H 1.45193 -3.51642 -0.284654
O -0.369905 -0.389065 0.0417586
H 1.72648 2.68591 -1.15592
Na -1.28974 -2.44651 0.494198
Na 0.748976 1.31264 1.33606
O 1.93158 2.01916 -0.49805
H 2.13172 1.19411 -0.99712
