17
charge 0
O -0.748753 -0.267043 0.792316
Al 0.293631 -1.54784 0.231657
Al -0.498539 1.36752 0.225135
O -1.21953 2.75092 1.00805
O -1.19007 1.09015 -1.43207
O 1.61582 -1.92846 1.34928
O 1.36121 -0.962924 -1.07542
H -2.15077 2.84705 1.19516
H -1.30695 1.83419 -2.02266
H 1.43965 -2.21555 2.24451
H 0.960903 -0.426957 -1.7644
O 1.25107 1.78366 0.268499
O -0.913703 -2.69426 -0.39997
H 1.36531 2.69325 0.553255
H -0.648684 -3.5029 -0.837581
Na 2.56713 0.0264214 0.498496
Na -2.17772 -0.847229 -0.83424
