16
charge -1
Al -0.113151 -1.4621 0.140936
Al 0.123669 1.62755 0.131522
O -0.197618 1.20829 -1.53541
O 1.76896 1.97359 0.542958
O -1.43755 -1.63242 -0.96769
O -0.0761879 -2.81404 1.23462
H 0.487434 0.668045 -1.93464
H 2.33924 1.21751 0.394277
H -1.5471 -0.849861 -1.51403
H -0.778636 -3.45164 1.12084
O -1.02637 2.80131 0.702153
O 1.45584 -1.0931 -0.542043
H -1.57882 3.20501 0.0359514
H 2.15747 -1.71932 -0.375874
O -0.368359 0.101327 1.06023
H -1.20882 0.219859 1.5062
