18
charge -2
 Al        -1.4726789900        -1.6095983700        -2.9029148300
 Al        -1.4326313800         1.6349687300        -2.5153698000
  O        -2.2590534900         1.5265683500        -0.9498594700
  O        -2.6611054700         2.2263296100        -3.6519835900
  O        -2.4159995900        -1.6309537100        -1.4062114700
  O        -0.0439546200        -2.6317115500        -2.9517440000
  H        -3.2003012400         1.4153458000        -1.0851383400
  H        -2.6662419900         1.6829907300        -4.4402302100
  H        -2.3049702100        -0.8028042200        -0.9288475200
  H         0.7537589500        -2.1042124600        -3.0573599000
  O        -0.0023191800         2.6409834600        -2.3663117500
  O        -2.6003798600        -2.1273218700        -4.1684169800
  H         0.7837744300         2.1625852700        -2.6487674600
  H        -3.4944618700        -1.9483948500        -3.8779051400
  O        -0.8773600000         0.0562500000        -3.0947900000
  H         0.4726400000         0.0562500000        -3.0947900000
  O         1.8226400000         0.0562500000        -3.0947900000
  H         1.9912985500        -0.0195462700        -2.1523934700
