20

Al -0.368076 -1.62937 -0.281211
Al -0.323725 1.59252 0.239307
O -1.17501 1.41435 1.80314
O -1.57584 2.19131 -0.892532
O -1.32142 -1.69802 1.2261
O 1.06154 -2.67131 -0.399331
H -2.11817 1.33991 1.64284
H -1.59396 1.64022 -1.67823
H -1.2082 -0.879582 1.72492
H 1.85097 -2.12185 -0.481463
O 1.10942 2.61599 0.420134
O -1.52871 -2.0552 -1.57302
H 1.88658 2.13 0.115863
H -2.41703 -1.89286 -1.24934
O 0.284209 0.036754 -0.386727
H 1.55921 0.036754 -0.386727
O 2.83421 0.036754 -0.386727
H 3.044 -0.0863822 0.542991
X 30.000 0.000 0.000
X -30.000 0.000 0.000
