20
charge 0
O -0.144775 0.163878 -1.12433
Al -0.0161642 -1.56752 -0.0841
Al 0.0553008 1.56833 0.080537
O 0.364226 2.92832 -1.0457
O 1.69613 1.72579 0.825144
O 0.250181 -2.94024 1.03849
O 1.60926 -1.78976 -0.845995
H -0.311932 3.30576 -1.60538
H 2.03332 2.59012 0.571394
H -0.43476 -3.2918 1.60438
H 1.90893 -2.67249 -0.608954
O -1.59901 1.97962 0.687092
O -1.69371 -1.91002 -0.667777
H -1.84044 2.89549 0.545816
H -1.97279 -2.8138 -0.518435
H -0.0039732 0.265958 -2.06462
O -0.128385 -0.156817 1.12386
H 0.0010538 -0.266537 2.06485
Na 2.60481 -0.0695006 0.023639
Na -2.37729 0.0552274 8.8e-05
