18
charge -2
Al 0.411408 -1.845362 -0.621318
O 2.154854 -1.157361 -1.333922
Al 1.315538 0.614501 -1.164231
O 2.794848 1.404903 -1.857255
O 0.012920 -0.304794 -2.089543
O -1.337435 -1.630573 -0.031062
H -0.868023 -0.007227 -1.847891
H -1.822143 -2.341997 -0.454013
O 0.481503 2.216670 -0.858502
O 0.068983 -3.147184 -1.899762
H 1.030350 2.895048 -1.256588
H 0.049438 -2.677765 -2.736875
H 2.717890 -1.438573 -0.606901
O 0.830068 -0.180126 0.448407
H 0.013212 0.158936 0.822392
H 3.367807 0.686136 -2.132506
O 1.252038 -2.985181 0.559925
H 1.267042 -3.821851 0.088444
