18
charge -2
 Al         0.4044154400        -1.8481652400        -0.6104509200
  O         2.1765271800        -1.1613750900        -1.2994845600
 Al         1.3344218600         0.6074159400        -1.1447870400
  O         2.7859709600         1.4028271900        -1.8970939200
  O         0.0365863700        -0.3034276900        -2.0846213400
  O        -1.3444284100        -1.6281805700        -0.0195893100
  H        -0.8405529000         0.0248649700        -1.8799978500
  H        -1.8448014300        -2.3388396500        -0.4239012400
  O         0.4974434700         2.2053788100        -0.8133941900
  O         0.0786586900        -3.1255134600        -1.9167585800
  H         0.9696776900         2.8845679200        -1.3033863700
  H         0.0762554800        -2.6342529500        -2.7419351800
  H         2.7155819300        -1.4634868900        -0.5625833700
  O         0.8233241000        -0.1888751300         0.4606493900
  H         0.0040892400         0.1552250200         0.8213409200
  H         3.3562495500         0.6853913400        -2.1830861800
  O         1.2359347200        -3.0056467800         0.5606802200
  H         1.2749460700        -3.8297077500         0.0671995100
