20

O -1.02095 -0.790947 1.26982
H -0.330145 -0.257565 1.68102
O 1.18113 -1.50511 -0.509091
H 1.47617 -0.649647 -0.138903
O -1.85685 -1.49548 -1.16434
H -1.94787 -1.89876 -2.02515
O -0.288115 -3.58252 0.196371
H -1.0386 -4.13748 0.403104
O 1.48448 3.46292 -0.162106
H 1.19022 4.26342 -0.59349
O 1.45338 0.869323 0.913836
H 2.24606 1.2245 1.32007
O -0.230256 1.2022 -1.34414
H 0.305536 0.630501 -1.89348
O -1.12096 2.37085 0.808159
H -1.19964 2.92534 1.58175
Al -0.516307 -1.81526 -0.0592443
Al 0.460299 2.06894 0.0398777
Na -2.09323 0.610484 -0.21266
Na 1.84564 -3.49571 -0.111384
