306
charge 0
 H         3.527802        5.590251        7.708295
 H         6.148941        4.624311        4.988624
 H         7.945860        3.570495        8.057480
 H         1.625844        7.014943        4.718515
 H         0.354944        7.145079        7.709191
 H         8.433507        3.983488        5.693004
 H         4.236378        3.580625        8.817030
 H         4.636854        6.367095        5.718284
 H         1.559662        3.802840        8.655804
 H         6.905438        7.139840        5.027173
 H         5.557476        6.278592        8.710972
 H         2.779631        4.350939        4.729451
 H         3.660612       10.774867        7.749126
 H         6.106542        9.650315        4.977404
 H         6.766613        9.216247        8.909376
 H         0.927282       12.347205        5.252985
 H         0.392212       12.185179        7.723917
 H         8.337012        9.001308        5.826677
 H         4.152668        8.577522        8.845931
 H         4.690575       11.516354        5.636400
 H         1.537701        8.849504        8.674708
 H         7.046423       12.249960        4.973833
 H         5.937464       11.751240        8.911030
 H         3.487305        9.774235        5.307592
 H         2.740009        1.239244        8.651118
 H         6.199317       14.752449        4.979542
 H         7.003561       14.173655        8.916839
 H         1.057013        2.220843        5.124327
 H         0.439022        2.114243        7.733665
 H         8.535935       14.014795        5.845976
 H         3.996375       14.801914        7.795061
 H         4.717712        1.382686        5.739333
 H         1.531930       13.935587        8.624160
 H         6.979499        2.073954        4.977077
 H         6.183953        1.699994        8.890942
 H         3.288807       14.815377        5.033387
 H        12.428930        5.990437        7.720659
 H        13.622404        5.152127        5.642418
 H        16.618107        3.723090        7.850769
 H         9.428757        7.357724        5.480108
 H         8.925315        7.235000        7.964420
 H        -0.372313        3.901807        5.502439
 H        12.902695        3.500236        8.754408
 H        13.040483        7.510426        4.713649
 H        10.191826        3.832888        8.735946
 H        16.572010        7.754579        5.501462
 H        14.625778        6.634953        8.682165
 H        11.130342        4.449366        4.786600
 H        12.316513       10.872392        7.737060
 H        13.699238       10.328156        5.627977
 H        16.625412        8.759896        7.831051
 H        10.491903       11.959808        4.857267
 H         8.841572       12.355441        7.824574
 H        -0.071295        9.926813        4.743094
 H        12.923712        8.664933        8.656051
 H        13.023348       13.006064        4.896175
 H        10.238523        8.944725        8.723824
 H        15.516221       12.244938        4.805664
 H        14.657726       11.737642        8.746031
 H        10.960140        9.430546        4.760977
 H        11.301054        1.373265        8.773343
 H        13.701531        0.229394        5.713389
 H        -0.592062       13.851518        7.823417
 H         9.385083        2.295859        5.633075
 H         8.675424        1.027847        8.919235
 H        -0.309804       14.163936        5.388565
 H        12.817880       14.876258        7.823763
 H        12.971794        2.568681        4.816985
 H        10.221395       13.925911        8.810941
 H        15.598595        2.106513        4.797706
 H        14.690590        1.595208        8.764268
 H        11.048822       14.653540        4.868734
 H         0.565511        3.168328       10.442838
 H         4.053463        4.617255       10.514127
 H         7.682552        5.303309       10.345881
 H         2.581470        6.269208        9.426785
 H         2.201820        4.335423       13.392004
 H        -0.507085        3.903488       12.610454
 H         1.299989        7.109097       13.359341
 H         0.513685        8.366137       10.466721
 H         4.100385        9.556884       10.529656
 H         8.602842       11.264048        9.583220
 H         2.690406       11.348161        9.434453
 H         3.313617        9.862705       12.888478
 H        -0.126828       10.067697       13.481501
 H         1.498342       12.428309       13.313463
 H         0.427442       13.530343       10.461020
 H         4.287153       13.666573        9.621357
 H         7.456229        0.546206       10.895642
 H         3.520336        0.579946       10.493660
 H         3.417212       14.968106       12.713460
 H        -0.099773       15.112683       13.524761
 H         0.806159        2.370337       12.845897
 H         9.045756        3.118699       10.405535
 H        13.460656        6.153648       10.247808
 H        12.323063        4.497075       10.459566
 H        -0.174513        6.109506        9.413569
 H        11.196609        6.329735        9.419798
 H        15.443323        4.030494        9.477952
 H        -0.927362        7.710570       12.501424
 H        11.259851        4.807178       13.284474
 H        12.733823        7.443133       13.450794
 H        13.551384        5.318976       12.666133
 H         9.181684        7.327849       12.747501
 H         9.057150        8.432635       10.381528
 H        13.504328       11.341270       10.378199
 H        12.437817        9.624651       10.412102
 H        -0.037379       11.203914        9.505086
 H        11.355011       11.455941        9.528880
 H        15.470566        9.157737        9.476885
 H        -0.865390       12.807051       12.616820
 H        11.978848        9.815804       12.769572
 H        13.178099       11.606584       12.765121
 H        14.520605        9.652408       13.450151
 H        10.565657       11.819386       13.500717
 H         9.270710       13.050719       10.533648
 H        13.680305        0.870276       10.372182
 H        12.852520       13.840981        9.568842
 H        -0.014814        1.110073        9.544047
 H        11.831959        0.465100       10.562541
 H        15.587399       14.210711        9.522883
 H        15.393168        2.104738       13.472973
 H        11.733659       15.117136       13.061664
 H        12.716697        2.495921       13.555436
 H        13.710605        0.274856       12.743453
 H         9.150909        2.280795       12.903679
 H         4.940722        2.863909       11.941191
 H         4.460172        2.708275       13.439395
 H         8.654299       14.683742       13.736480
 H         8.956042       13.422725       12.864734
 H         7.808712       10.449155       11.778231
 H         8.073249       10.330623       13.340653
 H         3.735858        5.953530       12.641052
 H         4.950433        6.859492       12.131863
 Al        2.968463        2.828337        6.709959
 Al        5.730589        8.163230        6.949853
 Al        1.390240        5.321377        6.639358
 Al        7.315912        5.662092        6.973495
 Al        2.901008        7.850665        6.723564
 Al        5.728229       13.272909        6.903539
 Al        1.469140       10.368708        6.668396
 Al        7.184117       10.741297        6.944169
 Al        2.893487       12.934828        6.668703
 Al        5.809427        3.153907        6.933933
 Al        1.466048        0.304957        6.633759
 Al        7.277819        0.580354        6.958874
 Al       11.535716        2.896900        6.784156
 Al       14.442847        8.212585        6.689493
 Al       10.176881        5.475131        6.775413
 Al       15.805775        5.681890        6.662985
 Al       11.553132        8.044318        6.701091
 Al       14.469298       13.307160        6.806306
 Al       10.064085       10.541877        6.784610
 Al       15.851554       10.737154        6.740635
 Al       11.561731       13.071878        6.809834
 Al       14.412134        3.131291        6.785659
 Al       10.113497        0.397270        6.865580
 Al       15.892014        0.639989        6.753820
 Al        1.198145        5.412505       11.393498
 Al        2.768773        2.902243       11.413140
 Al        1.348875       10.468916       11.465456
 Al        2.740209        7.889539       11.383511
 Al        1.352457        0.380213       11.532207
 Al        2.696857       13.071655       11.251392
 Al        9.801017        5.362435       11.373736
 Al       11.185293        2.728300       11.614162
 Al       15.641891        5.598541       11.456262
 Al       14.216141        8.147931       11.454769
 Al        9.978680       10.531804       11.450761
 Al       11.250175        7.858644       11.509171
 Al       15.710563       10.721628       11.454050
 Al       14.327507       13.311748       11.559772
 Al        9.732400        0.203055       11.559245
 Al       11.455649       13.040292       11.558567
 Al       15.773898        0.599819       11.506412
 Al       14.164893        3.110543       11.513059
 O         2.753413        6.200564        7.745443
 O         5.911208        4.792670        5.913226
 O         7.107435        4.072093        7.998641
 O         1.628346        6.924786        5.678802
 O         0.063633        6.204031        7.730923
 O         8.613361        4.938757        5.780519
 O         4.253025        3.725007        7.828171
 O         4.474216        7.333806        5.769895
 O         1.453502        3.685219        7.678383
 O         7.211301        7.351786        5.924737
 O         6.072396        6.616133        7.968741
 O         2.714088        4.389527        5.690816
 O         2.828721       11.297402        7.719279
 O         5.789324        9.825645        5.878328
 O         6.995691        9.168304        7.969498
 O         1.712048       11.921144        5.627545
 O         0.113560       11.241459        7.768002
 O         8.511189        9.966343        5.819484
 O         4.191584        8.681277        7.839580
 O         4.463649       12.461826        5.741333
 O         1.428512        8.736685        7.692194
 O         7.120117       12.362462        5.932133
 O         5.888902       11.680753        7.946838
 O         2.668263        9.372988        5.633624
 O         2.857842        1.165442        7.676279
 O         5.873114       14.925835        5.877388
 O         6.990616       14.181349        7.950586
 O         1.805291        1.833072        5.597681
 O         0.149784        1.169801        7.770732
 O         8.604333       14.991602        5.836483
 O         4.178691       13.830450        7.810315
 O         4.545516        2.347085        5.760406
 O         1.416355       13.816277        7.648864
 O         7.261586        2.242579        5.890800
 O         6.003052        1.560649        7.949844
 O         2.618804       14.451931        5.624288
 O        11.546166        6.421960        7.783751
 O        14.481301        4.694445        5.725501
 O        15.718403        4.102911        7.826323
 O        10.324154        7.031909        5.671389
 O         8.842516        6.263867        7.887597
 O        -0.112467        4.835802        5.639415
 O        12.942195        3.690920        7.794396
 O        13.023168        7.458635        5.677647
 O        10.233108        3.877213        7.757446
 O        15.735536        7.284276        5.666564
 O        14.549608        6.611744        7.701315
 O        11.407155        4.503634        5.712557
 O        11.506651       11.430083        7.817334
 O        14.550576        9.854589        5.697165
 O        15.728037        9.151809        7.821803
 O        10.236144       12.153143        5.770182
 O         8.731396       11.378450        7.892345
 O        -0.080200        9.870066        5.707695
 O        12.954346        8.860104        7.692977
 O        13.060472       12.515504        5.733407
 O        10.208615        8.923367        7.742118
 O        15.848897       12.405233        5.703852
 O        14.638090       11.721994        7.757357
 O        11.294355        9.632056        5.647377
 O        11.506661        1.275685        7.817103
 O        14.527537       14.896127        5.778689
 O        15.798889       14.223297        7.841161
 O        10.281302        1.929836        5.738863
 O         8.746443        1.154756        7.939511
 O        -0.085312       15.074124        5.651544
 O        12.978384       13.901917        7.876525
 O        13.034712        2.282696        5.740138
 O        10.231553       13.920728        7.826012
 O        15.832440        2.273926        5.724170
 O        14.682172        1.566520        7.782227
 O        11.387687       14.660714        5.775536
 O         1.372697        3.734404       10.444839
 O         4.181604        3.646878       10.505473
 O         8.090870        5.677362       11.144886
 O         2.592792        6.253399       10.428051
 O         2.631906        4.498357       12.535255
 O        -0.225595        4.837094       12.517643
 O         1.427436        6.978130       12.412719
 O         1.361930        8.857189       10.419267
 O         4.160901        8.584778       10.457115
 O         8.608773       11.379990       10.573183
 O         2.682624       11.386088       10.432129
 O         2.548264        9.402203       12.518439
 O        -0.186233        9.943562       12.524194
 O         1.864542       12.001582       12.528262
 O         1.301202       13.981077       10.426373
 O         4.170811       13.815783       10.590250
 O         8.326247        0.887318       10.637174
 O         2.762338        1.216586       10.518551
 O         2.576843       14.512355       12.543402
 O        -0.125601       15.014014       12.563624
 O         1.647264        1.948689       12.603136
 O         9.875115        3.623331       10.514925
 O        14.324931        6.569574       10.405457
 O        12.555724        3.553118       10.571233
 O        -0.200547        6.162664       10.409957
 O        11.146443        6.243349       10.429196
 O        15.377489        4.012922       10.474115
 O        15.519157        7.234844       12.466919
 O        10.766960        4.334204       12.599074
 O        12.771660        7.258971       12.500388
 O        14.288335        4.687535       12.555034
 O        10.012728        6.876570       12.529629
 O         9.921676        8.861917       10.507031
 O        14.400493       11.721758       10.453876
 O        12.635421        8.665584       10.465654
 O        -0.078033       11.272020       10.497437
 O        11.431772       11.367507       10.531610
 O        15.405001        9.160716       10.474500
 O        15.608551       12.296056       12.535321
 O        11.086423        9.473070       12.573213
 O        12.910730       12.533130       12.608930
 O        14.226917        9.805064       12.536935
 O        10.127393       12.027463       12.658285
 O         9.975072       13.760226       10.597636
 O        14.407583        1.504860       10.502288
 O        12.774379       13.979120       10.562738
 O        -0.037470        1.227939       10.534265
 O        11.100695        1.127457       10.581538
 O        15.594802       14.206085       10.520098
 O        15.633055        2.264385       12.546232
 O        11.075722       14.548623       12.637676
 O        12.752160        2.202918       12.630965
 O        14.491817       14.899482       12.617040
 O         9.929314        1.743798       12.691659
 O         4.476910        2.248220       12.581809
 O         8.220452        9.868501       12.497099
 O         8.479955       14.307191       12.854439
 O         4.098308        6.884438       12.606808
