6
charge 0
  O         0.0000000000         0.0000000000         0.0000000000
  O         0.0000000000         2.6000000000         0.0000000000
  H         0.0000000000         1.5000000000         0.0000000000
  H         0.7517831900        -0.3691931300        -0.4702355400
  H        -0.7887810800        -0.3679425500        -0.4068690000
  H         0.0543005000         2.8425273300         0.9256822300
