118
charge 0
 Al       11.667528       12.077405        7.498781
 Al        9.408620        3.487991        5.021668
 Na        3.211559        5.567938        9.199121
 Na       12.228771       11.456169        4.351187
 Na        6.395669        3.509978        5.905029
 Na        5.051197        1.505381        2.176360
 Na        4.973682        9.153635        2.640906
 Na        9.415934        7.028572        9.944774
 Na        8.124121        5.749997        2.672693
 Na        6.088724       13.198208       10.318272
 Na        5.242993        6.465317        0.994328
 O        10.565211       11.230881        6.158352
 O         6.153149        7.165712        5.409147
 O         2.993164        7.729157       10.563470
 O         9.748955        7.278920        1.550331
 O         8.647278        2.472328        6.272618
 O         6.521563        2.333092        8.265647
 O         4.340568        1.980293        5.530318
 O         8.975437       10.316774        3.479315
 O         2.017911        2.390442        4.279167
 O         4.322176       12.541894        8.691830
 O         1.973516        4.333154        6.464113
 O         8.187189        3.125687        3.679837
 O         7.370894        5.052163        0.308684
 O         1.380394        4.740809       10.254079
 O         3.942801        2.928942        8.453638
 O         6.425107       10.408671        3.978624
 O         3.068491        5.931615        2.242723
 O         5.134490       10.280363        6.337565
 O        12.513342       11.207510        2.043340
 O         9.382092        3.862415        1.486921
 O         4.991240        9.291098        9.952088
 H         9.669696        7.151402        0.576944
 H         6.593014        7.930797        5.812099
 H         2.240580        4.653180        0.319561
 H        10.607474        6.722811        1.821396
 H        10.432285       10.434799        9.382889
 H        10.574514       13.235867        9.180232
 H         8.238487       11.972321        4.882738
 H         9.343884       10.124557        4.354111
 H         2.846806        2.246903        4.825276
 H         4.236471       12.076517        9.540460
 H         2.941628        4.341514        6.532723
 H         7.337433        3.640025        3.642549
 H         8.276349        9.017082       11.123217
 H         9.410859        4.749232       10.957188
 H         4.094606        3.628201        7.776903
 H         7.446051       10.343980        3.823752
 H         6.210648       11.373021        4.007356
 H         3.411416        6.407007        3.018476
 H         3.783957        4.520850        1.905530
 H         5.735483       10.072245        5.579503
 H         5.088000        9.477174        6.898761
 H         3.984699       10.735557        1.213301
 H         9.942238       11.831604        5.714704
 H         8.946173        3.523512        2.346958
 H         8.626000        4.342646        1.003091
 H         5.093228        8.797089        9.115061
 H         3.685939        8.454038       10.374698
 Al        4.717522        6.624626        6.290111
 Al       10.202778        6.111214        5.795024
 Na        6.000181       12.464017        7.086252
 Na       11.155959        9.077735        6.465171
 Na       10.741312        9.437995        2.051559
 Na        8.525833       11.101278        7.520639
 Na        3.757835        4.200667        4.350651
 Na        7.956575        8.977450        1.678340
 Na        8.892747        4.192035        8.327549
 Na        5.917037        7.093844       10.813559
 Na        2.013547        1.942849        1.615644
 O         9.901520        5.159546        4.166819
 O        10.439916        6.881937        7.518423
 O         4.523056        7.794748        7.627367
 O         9.635712       10.617802       10.062743
 O         3.299716        6.521466        5.280250
 O         8.021498        8.880971        7.076660
 O         3.786845        8.820263        0.376506
 O         4.436831        3.753445        1.804393
 O         4.869623        4.998605        6.971697
 O         8.394420        5.397055        6.149834
 O         5.932077        4.554843        3.668694
 O        11.510281       10.388749        8.383883
 O         9.476237        7.775351        5.164079
 O         6.527079        7.448357        2.611609
 O         3.469924        0.269256        0.794129
 O         3.085127        8.705834        4.093189
 O         7.020678        1.969117        1.053677
 O        10.892219       13.408550       10.939769
 O         6.892976       10.984001        9.451956
 O         5.600174        5.276737        9.441303
 O         7.580444        6.535135        8.446986
 H         1.822000        5.263438        3.396417
 H         9.628325        7.383652        7.672900
 H         7.653784        8.169435        7.652532
 H         9.704254       11.585511       10.147925
 H         4.901428        2.641449        8.530616
 H         8.521524        8.420289        6.331593
 H         3.478170        7.944139        0.096692
 H         5.170320        4.076700        2.503418
 H         7.727147        5.904220        5.647209
 H         3.619250        7.771999        7.987203
 H         5.961188        5.525404        3.605360
 H         3.603646       10.149624        8.924411
 H         8.847661        7.742259        4.428918
 H         6.402758        7.484106        3.580407
 H         4.441638        3.696331       11.166140
 H         3.328053        7.766666        4.524140
 H        10.806656        8.567234        4.224361
 H         7.342553        2.882094        1.082740
 H         7.802540        1.408899        1.568634
 H         7.339874        3.645039       11.143043
 H        11.782351       12.892027       11.043124
 H         7.698792       10.561476        9.801377
 H         6.123116       10.321166        9.620246
 H         5.262064        5.064330        7.916997
 H         5.915876        4.405520        9.715298
 H         7.787697        6.118678        7.560569
 H         6.762251        6.014380        8.819162
