118
charge 0
Al 6.3291 2.25452 6.34445
Al 8.23792 4.391 5.05017
Na 6.44433 5.69661 7.33565
Na 4.22512 6.80544 3.04627
Na 8.78869 7.13999 4.22639
Na 1.01303 1.63279 5.15918
Na 6.31771 2.89281 3.29397
Na 11.9615 13.2682 10.566
Na 7.16277 10.7028 3.79084
Na 7.19833 5.52761 1.67723
Na 10.4648 7.18523 0.809766
O 5.23124 1.54524 4.91645
O 5.14138 6.04832 5.09517
O 3.65905 9.01809 6.64749
O 8.82583 3.22203 1.92796
O 7.70303 2.76207 5.33405
O 7.14724 2.67862 8.20415
O 9.70386 4.45862 4.03411
O 2.99947 5.12539 1.73715
O 3.65775 3.69034 4.18293
O 6.24086 10.6281 5.89462
O 7.18133 5.2811 3.97943
O 2.1262 1.56419 2.61759
O 10.0525 11.9973 10.4438
O 8.59418 5.25684 6.52615
O 6.74574 4.73737 9.68958
O 9.88586 8.42239 8.32894
O 3.65851 8.70817 10.4469
O 3.57561 10.0942 4.16681
O 11.9262 8.94527 1.80113
O 7.24306 10.7391 0.995372
O 4.17881 6.85926 8.08568
H 9.08964 3.78445 2.72376
H 6.24869 5.6348 4.47349
H 11.4413 8.94381 6.97792
H 9.61965 2.60953 1.98256
H 9.62416 4.53419 0.143577
H 10.461 12.7924 8.88311
H 1.91372 4.18104 4.28771
H 2.15983 4.87003 2.15552
H 3.65861 4.16574 3.32426
H 6.7288 11.2843 6.41607
H 4.86141 6.19759 0.315641
H 2.65882 2.29924 2.96649
H 7.04778 3.59688 8.65683
H 1.80357 1.91762 -0.02926
H 5.82693 4.39483 9.63862
H 9.03214 8.25677 7.76916
H 10.143 7.46222 8.41321
H 3.26986 7.99238 9.91579
H 3.00414 5.26464 0.276815
H 3.55296 9.42395 3.41631
H 3.6714 9.6519 5.0651
H 3.93865 8.59432 1.23248
H 4.48945 2.14985 4.71175
H 2.92325 0.699104 1.54777
H 3.88662 0.634455 0.342519
H 3.63396 6.23154 7.51151
H 4.04695 7.7133 7.56339
Al 4.23883 4.66633 5.60681
Al 10.0621 4.7755 7.33391
Na 9.47559 9.82547 1.73925
Na 8.19594 6.2276 10.6898
Na 5.22302 6.77263 10.2223
Na 5.70778 8.27943 5.53242
Na 6.35973 13.0261 10.1316
Na 8.59425 10.0476 6.52556
Na 12.4996 11.3243 1.98969
Na 11.199 10.4934 8.94969
Na 5.34406 10.0932 8.04956
O 4.50661 11.5488 9.6379
O 1.49673 3.02 7.5861
O 2.51397 2.70793 -0.130036
O 8.96533 5.20005 -0.129227
O 2.83814 5.22517 6.51702
O 7.82147 11.9085 7.88372
O 6.32393 1.28917 1.11724
O 5.34736 6.92001 0.747867
O 5.18667 3.61377 6.65486
O 7.82503 7.88119 6.83279
O 8.32487 7.68702 1.9367
O 10.52 11.2516 6.83903
O 10.008 5.80336 8.81883
O 0.720731 0.926028 -0.186326
O 7.50969 10.6146 10.0701
O 11.0155 7.30416 4.84459
O 5.62535 3.72288 1.18905
O 6.30817 8.55343 3.15446
O 9.4641 9.91203 4.10648
O 6.87726 8.14931 9.26279
O 4.25236 3.80767 9.07224
H 4.74527 10.957 10.3647
H 9.37668 2.57926 7.88442
H 7.20574 12.6578 7.78751
H 9.56369 8.4354 10.071
H 9.16476 12.3623 10.3283
H 7.64805 11.4395 8.77619
H 6.2908 1.26023 0.102375
H 6.04527 7.19204 0.027194
H 8.22994 6.9892 6.71034
H 2.11571 5.9044 9.3592
H 8.04679 7.93046 1.03927
H 11.2491 10.9081 6.30527
H 2.6303 3.06408 0.768056
H 9.72669 4.42336 10.1157
H 8.45411 10.6019 10.3037
H 2.81164 7.93905 5.41879
H 2.43899 6.47227 5.38753
H 4.74077 4.02958 1.46251
H 5.90318 2.2484 1.20939
H 7.15212 8.15753 2.60543
H 5.72489 8.8814 2.45192
H 10.4379 9.80557 4.20378
H 9.34326 10.8973 4.39457
H 7.22433 9.03623 9.58614
H 7.25364 8.02295 8.32942
H 3.73772 4.62581 9.02183
H 4.60034 3.67446 8.10039
