118
charge 0
 Al        9.128544        4.044165       10.106311
 Al        6.604000        5.657815        8.255836
 Na        3.499486        6.849608        3.077383
 Na       11.106915       12.402536        8.763783
 Na        7.144724        8.402918        5.966700
 Na        6.710898        2.645037        5.156604
 Na        5.363783        1.886199        0.652472
 Na        8.679598        7.848728        0.000407
 Na       10.505215        9.280032        4.226855
 Na        9.814903        9.976583        7.335195
 Na        6.910849       12.100300        5.064387
 O         5.629974        8.031367        4.095393
 O         7.756098        9.031386        8.260530
 O        10.690337        7.815596        8.265172
 O         4.390698       13.046421       10.000252
 O         8.788033       10.561050        5.166600
 O         4.790003        4.706891        8.940347
 O         8.707832        2.741258        6.772246
 O         9.133734       12.447048        7.269548
 O         6.137773       11.337852        2.925766
 O         3.346637        7.992699        5.409074
 O         1.609218        3.307121        4.916731
 O         4.756072        8.949419        9.948422
 O         5.930811        4.744600        2.497063
 O         8.127934        6.553433        7.830484
 O         8.871052        7.434056        4.468904
 O         9.974258       13.192754       10.753928
 O         4.902404        2.565697        3.545965
 O         3.432308        9.384418        2.431254
 O         7.246694        3.494094        0.610832
 O         9.698919       10.556155        2.053908
 O         9.283884        4.400666        1.927948
 H         4.287300        7.815306        5.083252
 H         1.478995        0.734547        2.589911
 H         2.405055        5.862508       10.106392
 H         7.465398       10.940865        9.238807
 H         2.972558        1.463395        0.239711
 H         4.239236        5.322685        9.451472
 H         9.381535        2.985469        5.984922
 H         8.914100       11.817362        6.542682
 H         9.061700       11.241339        4.531664
 H         2.932137        7.170832        5.815236
 H         3.879520        5.591807        0.237368
 H         5.540661        9.506536       10.105358
 H         4.169664        4.301193        8.238917
 H         8.069210        3.513054        6.897376
 H         9.503445        7.088560        5.131014
 H         9.056192       13.427149       10.538958
 H         6.869191        3.726122        9.995032
 H         4.309924        4.161872        4.210851
 H         5.138384        1.761557        3.055900
 H         3.831606       10.123816        1.943776
 H         6.661058        7.154174        0.792751
 H         7.684113        2.612205        0.637339
 H         5.162954        8.514755        3.387446
 H        10.643895       10.235144        2.163921
 H         9.539903       10.317421        1.047916
 H         8.861791        4.591623        2.830543
 H         8.467889        4.045164        1.441588
 Al        2.670452        4.437934        5.737629
 Al        9.854471        6.284430        7.876921
 Na        4.479836       10.319258        4.537154
 Na        2.706350        3.494479        2.485947
 Na        5.746453        9.591716        0.062747
 Na        7.704488        9.398096        3.169274
 Na        4.205458        8.554555        7.768405
 Na        6.280097        5.786480        4.909609
 Na        5.659691       12.745257        8.080044
 Na        9.481133        7.857619       10.566259
 Na       11.504560        8.320270        0.282461
 O         3.036731        6.272721       10.873264
 O         7.616345       11.896311        9.313526
 O         6.632208        4.304141        6.968010
 O         3.370551        0.690244        0.681904
 O         1.944361        5.894403        6.350034
 O         8.415659        1.768551        3.731689
 O         5.535395        6.749922        7.145200
 O         3.725123        5.466154        1.246828
 O         7.438104        4.490541        9.630375
 O         9.912077        7.124254        2.108001
 O         7.495786        9.417178       10.869421
 O         3.446648        3.538148        7.072186
 O         1.481960        5.192924        9.253836
 O         6.576885        7.939784        1.489871
 O         5.748172       10.610031        6.648736
 O         3.897817        4.978553        4.549879
 O         8.321495        4.860671        4.287701
 O        10.782450        9.976559        9.819648
 O         8.865077        1.316194        0.690747
 O         6.125638        6.765734        9.823626
 O        11.958126       10.850677        6.646484
 H         3.489623        7.066351       10.541399
 H         8.232211       12.119244        8.509359
 H         8.333818        1.839103        2.762168
 H         2.966682        0.696557        1.700600
 H         5.566174        3.878110        2.883720
 H         9.174191        2.371738        4.007188
 H         4.754231        6.226323        6.911676
 H         4.632422        5.227771        1.591255
 H         9.450091        7.221389        3.028196
 H         7.885951        7.997675        8.142895
 H         6.625851        5.449073        0.070330
 H         7.557884        9.115583        9.241218
 H         6.055808        3.565605        7.238160
 H         6.319334        7.536549        2.347521
 H         6.323652       10.230398        7.335353
 H         9.752737        6.174754        1.891246
 H         4.205594        2.881604        7.005278
 H         9.121647        4.347956        4.648111
 H         8.561842        5.844139        4.363877
 H         3.030557        9.710117        9.869131
 H        10.635693        8.585602        8.901546
 H         6.575581        4.348782        1.846265
 H         0.875275        1.977130        0.766905
 H         5.603966        7.662656        9.823457
 H         6.854627        6.778772       10.540330
 H         4.301760       10.699264        6.798151
 H        11.981922       11.842745        6.595503
