118
charge 0
 Al        1.858112        1.499488        1.094894
 Al        5.897913        8.228480        8.941203
 Al        6.343581       12.300773        5.812130
 Al        5.924262        6.512468        3.209270
 Na        4.847200        9.981478        3.419074
 Na        7.898273       10.160200        7.563047
 Na        8.589657       10.387089        4.142429
 Na        3.561537        7.530607        6.319024
 Na        8.131956        1.798880        4.091860
 Na        6.952298        7.230164        5.956330
 Na        3.908549        3.553685        3.109422
 Na        4.686467        4.091684        6.422343
 Na        4.915712       11.439180        8.753731
 Na        4.094254        9.864742        0.363689
 Na        7.868588       12.693863       10.565899
 Na        3.821128        6.675260        0.828237
 Na        1.694865        3.702303        8.028336
 Na        7.376573        5.790702        0.671693
 Na        3.398660        5.978984        9.427424
 Na        5.051473        3.332706        0.568327
 Na        7.103462        4.423831        8.130260
 Na        8.821522        4.754185        4.558731
 O         8.972081        1.260789        1.909208
 O         7.038974        9.362407        9.605103
 O         6.504019       11.035104        1.985593
 O         5.228771        8.914290        7.402728
 O         5.406198        4.635642       10.282239
 O         4.607016        7.871530       10.081804
 O         9.627493        7.879640       10.460630
 O         7.422554        3.098886        0.173782
 O         2.575037        3.097717        1.171521
 O         6.714705        6.824358        8.294729
 O         2.121226        4.123837       10.603063
 O         5.990016       11.340246       10.837558
 O         1.145032        2.567221        5.496056
 O         7.653366        6.608972        3.653491
 O         6.651139       12.309584        7.558633
 O        11.496398        8.837132        2.060446
 O         3.939116        2.319244        4.994436
 O         5.019465        6.461565        4.723381
 O         2.658103        5.350091        4.220010
 O         6.878820        3.850754        5.707982
 O         3.113734        5.380502        7.235632
 O         5.589707        5.157167        2.174012
 O         6.252324       10.599876        5.313771
 O         5.713944        8.056352        2.351515
 O         9.909329       10.737358        0.906387
 O         3.331858        9.930424        9.302548
 O         8.434582        2.446249        7.911829
 O        10.606373        7.857631        4.324276
 O         7.564051        3.737792        2.775660
 O         9.130286        6.030872        6.544617
 O         8.186876        9.053214        2.192808
 O        11.416580       12.471886       10.263188
 O         5.554911        1.853275        2.565164
 O        10.634230        8.230979        8.015598
 O        10.069199       11.911680        5.568106
 O         8.852411        8.679267        5.903862
 O         9.840453       11.236588        7.958714
 O        11.902310       10.073729        5.241914
 O         4.905889        2.925216        8.496461
 O        10.525689        5.695977        1.805306
 O         9.072958        5.419584        9.092636
 O         9.539316       10.655358       11.053913
 H         8.214338        1.579779        1.388193
 H         6.623456       10.158917       10.104979
 H         7.229487       10.380678        1.868637
 H         4.412408        9.411091        7.585629
 H         5.886287        4.098425       10.981280
 H         3.966822        8.640238        9.901178
 H        10.494177        7.861592       10.890258
 H         8.704920        6.922124       11.033232
 H         2.016776        3.888682        1.281304
 H         7.552384        6.612450        8.749985
 H         1.366472        4.603187       10.134837
 H         5.664515        8.095428        0.609031
 H         9.236316        2.561961        6.286317
 H         8.061777        7.454708        3.379815
 H         7.466249       12.835840        7.900793
 H        11.071655        8.444485        2.876043
 H         4.818380        1.870209        5.155735
 H         4.133035        6.023249        4.527125
 H         2.495332        4.966638        5.099883
 H         6.468975        4.193758        4.899954
 H         2.251900        5.744738        6.978220
 H         6.691779        4.358473        2.540616
 H         5.783564       10.020999        5.949739
 H         6.632402        8.467520        2.284760
 H        10.855080        9.530031        1.747566
 H        10.664475       10.804674        8.250389
 H        11.583565       12.817478        9.307096
 H        10.806698        6.862905        4.340367
 H         7.848531        3.414649        1.900071
 H         9.108324        5.866122        7.540631
 H         8.629290        8.416298        1.613222
 H        10.963593       13.153050       10.882257
 H         9.206485       10.179933        1.328605
 H        11.660542       10.638141        9.853760
 H         5.890897        1.170630        1.878999
 H        11.141870        8.974678        8.484314
 H         6.312343        2.450663        2.743260
 H        10.057233        7.991994        8.790513
 H         6.535296        2.189419        5.664633
 H         9.767121        8.107337        4.920196
 H         9.963415       11.497415        6.943543
 H         9.158912        7.017164        6.436476
 H         9.539242        8.817334        6.590188
 H        11.189260       10.756756        5.484850
 H        11.483871       12.768049        7.372089
 H        11.388450        9.313986        4.877736
 H         5.185528        3.934322        9.549997
 H         9.928905        6.455976        1.716232
 H         9.299706       12.883391        8.425385
 H         2.024238        5.573102        2.791964
 H         8.016106        5.602393       10.628066
 H         9.635956        9.832692       10.512128
 H         9.408583        6.274055        9.431866
 H        10.213707       11.290387       10.697836
