118
charge 0
Al 1.85811 1.49949 1.09489
Al 5.89791 8.22848 8.9412
Al 6.34358 12.3008 5.81213
Al 5.92426 6.51247 3.20927
Na 4.8472 9.98148 3.41907
Na 7.89827 10.1602 7.56305
Na 8.58966 10.3871 4.14243
Na 3.56154 7.53061 6.31902
Na 8.13196 1.79888 4.09186
Na 6.9523 7.23016 5.95633
Na 3.90855 3.55369 3.10942
Na 4.68647 4.09168 6.42234
Na 4.91571 11.4392 8.75373
Na 4.09425 9.86474 0.363689
Na 7.86859 12.6939 10.5659
Na 3.82113 6.67526 0.828237
Na 1.69487 3.7023 8.02834
Na 7.37657 5.7907 0.671693
Na 3.39866 5.97898 9.42742
Na 5.05147 3.33271 0.568327
Na 7.10346 4.42383 8.13026
Na 8.82152 4.75418 4.55873
O 8.97208 1.26079 1.90921
O 7.03897 9.36241 9.6051
O 6.50402 11.0351 1.98559
O 5.22877 8.91429 7.40273
O 5.4062 4.63564 10.2822
O 4.60702 7.87153 10.0818
O 9.62749 7.87964 10.4606
O 7.42255 3.09889 0.173782
O 2.57504 3.09772 1.17152
O 6.7147 6.82436 8.29473
O 2.12123 4.12384 10.6031
O 5.99002 11.3402 10.8376
O 1.14503 2.56722 5.49606
O 7.65337 6.60897 3.65349
O 6.65114 12.3096 7.55863
O 11.4964 8.83713 2.06045
O 3.93912 2.31924 4.99444
O 5.01947 6.46157 4.72338
O 2.6581 5.35009 4.22001
O 6.87882 3.85075 5.70798
O 3.11373 5.3805 7.23563
O 5.58971 5.15717 2.17401
O 6.25232 10.5999 5.31377
O 5.71394 8.05635 2.35152
O 9.90933 10.7374 0.906387
O 3.33186 9.93042 9.30255
O 8.43458 2.44625 7.91183
O 10.6064 7.85763 4.32428
O 7.56405 3.73779 2.77566
O 9.13029 6.03087 6.54462
O 8.18688 9.05321 2.19281
O 11.4166 12.4719 10.2632
O 5.55491 1.85328 2.56516
O 10.6342 8.23098 8.0156
O 10.0692 11.9117 5.56811
O 8.85241 8.67927 5.90386
O 9.84045 11.2366 7.95871
O 11.9023 10.0737 5.24191
O 4.90589 2.92522 8.49646
O 10.5257 5.69598 1.80531
O 9.07296 5.41958 9.09264
O 9.53932 10.6554 11.0539
H 8.21434 1.57978 1.38819
H 6.62346 10.1589 10.105
H 7.22949 10.3807 1.86864
H 4.41241 9.41109 7.58563
H 5.88629 4.09842 10.9813
H 3.96682 8.64024 9.90118
H 10.4942 7.86159 10.8903
H 8.70492 6.92212 11.0332
H 2.01678 3.88868 1.2813
H 7.55238 6.61245 8.74999
H 1.36647 4.60319 10.1348
H 5.66451 8.09543 0.609031
H 0.542316 2.56196 6.28632
H 8.06178 7.45471 3.37981
H 7.46625 12.8358 7.90079
H 11.0717 8.44449 2.87604
H 4.81838 1.87021 5.15573
H 4.13304 6.02325 4.52712
H 2.49533 4.96664 5.09988
H 6.46898 4.19376 4.89995
H 2.2519 5.74474 6.97822
H 6.69178 4.35847 2.54062
H 5.78356 10.021 5.94974
H 6.6324 8.46752 2.28476
H 10.8551 9.53003 1.74757
H 10.6645 10.8047 8.25039
H 11.5836 12.8175 9.3071
H 10.8067 6.86291 4.34037
H 7.84853 3.41465 1.90007
H 9.10832 5.86612 7.54063
H 8.62929 8.4163 1.61322
H 10.9636 13.1531 10.8823
H 9.20649 10.1799 1.3286
H 11.6605 10.6381 9.85376
H 5.8909 1.17063 1.879
H 11.1419 8.97468 8.48431
H 6.31234 2.45066 2.74326
H 10.0572 7.99199 8.79051
H 6.5353 2.18942 5.66463
H 9.76712 8.10734 4.9202
H 9.96341 11.4974 6.94354
H 9.15891 7.01716 6.43648
H 9.53924 8.81733 6.59019
H 11.1893 10.7568 5.48485
H 11.4839 12.768 7.37209
H 11.3885 9.31399 4.87774
H 5.18553 3.93432 9.55
H 9.92891 6.45598 1.71623
H 9.29971 12.8834 8.42539
H 2.02424 5.5731 2.79196
H 8.01611 5.60239 10.6281
H 9.63596 9.83269 10.5121
H 9.40858 6.27405 9.43187
H 10.2137 11.2904 10.6978
