118
charge 0
Al 1.33744 1.07729 1.9656
Al 5.30601 8.90049 10.5158
Al 1.34052 2.68521 7.45497
Al 4.55314 6.98433 5.05182
Na 3.98514 10.1997 4.71462
Na 6.01319 10.4261 7.97574
Na 6.70264 11.9286 4.86967
Na 3.40751 8.40146 7.82092
Na 8.14922 2.59154 4.97102
Na 6.49212 7.14209 7.92482
Na 2.08912 4.83639 5.02439
Na 3.78403 5.14434 7.87129
Na 4.62456 12.1066 10.4112
Na 4.85864 8.59196 2.17401
Na 7.54692 13.0336 10.7224
Na 2.75356 6.31362 2.17502
Na 8.36795 4.46345 10.205
Na 6.95871 6.01098 1.8141
Na 2.43496 3.54861 0.102181
Na 4.02199 3.35102 2.74564
Na 7.05425 4.18338 7.46044
Na 7.63614 5.79421 5.07371
O 8.52855 1.26364 3.14055
O 6.88268 8.72707 9.60482
O 5.87983 10.625 3.129
O 4.19974 9.9188 9.48488
O 2.61443 1.08369 0.560867
O 4.5136 4.90164 0.917863
O 9.32215 6.82225 10.2744
O 7.39394 3.46906 1.29775
O 1.85363 2.8098 2.34525
O 4.56633 7.35007 9.57046
O 4.0607 10.8533 0.772465
O 5.43126 7.29022 0.289462
O 8.56042 2.66255 8.65828
O 6.10447 7.20622 3.86072
O 6.19011 12.6573 8.76583
O 3.52489 8.12808 3.92619
O 2.89842 3.1149 6.43862
O 3.03781 6.73552 6.21857
O 9.1727 5.13636 3.34336
O 5.52236 5.63456 6.22781
O 9.1871 3.9892 6.44924
O 4.09305 5.45192 3.9765
O 4.62728 11.8952 6.452
O 5.25042 8.41458 6.19135
O 10.1168 10.6189 1.72806
O 10.3613 11.1404 9.18684
O 5.04937 2.80955 8.49837
O 9.3677 7.68739 3.46023
O 6.53758 3.91223 3.79078
O 8.52272 6.27794 7.39413
O 7.96004 9.2955 1.96608
O 11.0757 8.34183 0.844819
O 5.08587 1.82014 4.08251
O 2.05999 4.8643 9.3415
O 6.22488 1.89173 6.29268
O 9.09019 8.44613 5.86999
O 7.7452 10.4683 6.47976
O 10.9187 10.086 6.54191
O 6.0759 4.95777 9.59199
O 9.73146 5.62071 0.510676
O 5.12393 2.17971 0.813894
O 8.64808 10.709 10.999
H 7.87789 1.73066 2.59023
H 7.59287 9.29517 9.94806
H 6.71213 10.2315 2.77234
H 3.28052 10.1656 9.68824
H 3.51487 1.44583 0.750892
H 4.81963 3.98359 0.759332
H 9.86456 8.05183 11.1047
H 7.96307 3.5338 0.467887
H 1.17281 3.34617 2.79289
H 5.06189 6.52792 9.73921
H 11.8503 10.7545 1.14388
H 6.35684 7.44488 -0.006181
H 11.6797 12.6377 8.58528
H 6.64097 7.99735 4.01908
H 7.12362 12.8748 8.54233
H 11.2497 8.05397 3.93464
H 3.72162 2.79869 6.84061
H 2.26989 7.25961 5.9345
H 9.26448 6.66445 3.42614
H 5.18548 4.86246 5.74158
H 9.09526 4.89476 6.89013
H 4.97683 5.18047 3.67956
H 3.88158 11.4451 6.87957
H 6.06857 8.7602 5.80802
H 10.5704 10.6928 2.58427
H 10.2363 10.6058 8.38128
H 9.35422 12.7737 8.8286
H 8.38465 8.60982 2.57422
H 7.07262 3.79756 2.9697
H 9.24411 6.46239 8.00898
H 8.23138 8.15376 0.583331
H 10.655 9.18417 1.23829
H 8.78546 9.92435 1.88524
H 10.3879 7.99438 0.257996
H 5.41314 1.08339 3.54084
H 1.52957 5.68738 9.58851
H 5.98445 3.04658 3.86214
H 2.41517 4.52122 10.2132
H 5.66807 2.2472 7.04945
H 9.21782 7.98404 4.43606
H 5.66177 1.83665 5.39279
H 8.90378 7.69726 6.49936
H 8.26152 9.58483 6.20586
H 10.5188 10.989 6.43118
H 8.45856 11.0772 6.72791
H 10.1941 9.40045 6.23507
H 5.86674 5.08175 10.6529
H 9.13956 6.40224 0.253356
H 5.6303 4.09356 9.31356
H 9.22878 5.04619 2.37623
H 6.53454 3.02191 1.03136
H 8.64825 7.29272 9.75394
H 5.55576 1.38958 1.24046
H 9.59951 10.9357 9.86238
