118
charge 0
Al 2.67023 1.75009 1.40741
Al 6.12707 9.14962 10.061
Al 2.63037 3.41399 7.13423
Al 6.10032 7.50715 4.35231
Na 5.85089 10.763 4.08807
Na 6.87897 11.0302 7.32125
Na 4.34021 2.18996 4.31425
Na 4.40511 8.95765 7.09493
Na 1.09358 2.98486 4.08811
Na 7.58065 7.70889 7.36548
Na 3.58175 5.32587 4.22275
Na 4.79878 5.97848 7.3168
Na 5.60433 12.4675 10.0124
Na 7.1765 9.24985 1.57189
Na 4.21111 3.67369 10.061
Na 4.60847 7.31168 1.38995
Na 1.1174 4.5722 10.0566
Na 7.64572 6.16725 1.56913
Na 3.6907 6.90436 10.1491
Na 5.18849 4.01137 1.34873
Na 8.31653 4.66938 7.05243
Na 9.13497 5.93331 4.22695
O 1.11291 1.33972 2.44236
O 7.64947 9.504 8.96809
O 7.58169 11.5534 2.59492
O 5.10895 10.3373 8.91282
O 4.19839 2.06224 0.288559
O 4.6059 8.8735 11.2084
O 1.69446 3.04525 0.252903
O 7.08946 7.8106 11.1633
O 3.07855 3.33667 2.55847
O 5.63595 7.59912 8.90888
O 2.13083 0.190052 0.237436
O 6.74012 10.6269 11.2843
O 0.97294 3.1108 8.15474
O 7.7606 7.71433 3.34884
O 7.427 13.1771 8.36757
O 5.27331 8.69776 3.08077
O 4.27182 3.76915 6.14354
O 4.43588 7.31775 5.32522
O 1.71657 4.70433 5.85851
O 6.90525 6.15285 5.59461
O 2.93466 4.9555 8.33396
O 5.69123 5.96411 3.15852
O 2.16472 1.93839 5.91435
O 6.62998 8.966 5.55203
O 10.6491 11.2601 1.42714
O 10.9032 10.6006 9.99468
O 10.3925 12.9162 7.73498
O 11.1412 9.04242 3.66324
O 8.36194 4.23881 2.80208
O 9.29532 6.51386 8.50874
O 9.09218 9.58184 0.10757
O 3.61646 12.2322 11.377
O 6.46228 2.63759 3.12025
O 2.3219 8.22852 8.28775
O 7.84744 2.45417 5.59796
O 9.74101 8.29566 5.72632
O 9.04907 11.315 5.9965
O 3.63749 10.5983 5.4113
O 6.3508 4.40344 8.73465
O 2.26069 6.62673 2.67537
O 7.81744 5.1474 11.0657
O 9.76023 5.77832 0.327102
H 9.12002 1.39967 1.96049
H 8.49963 9.45679 9.42761
H 8.51625 11.4544 2.34199
H 4.17322 10.42 9.17345
H 4.96591 1.57241 0.625457
H 3.82611 9.33831 10.8643
H 9.58582 2.86579 0.323821
H 8.03345 8.03787 11.1066
H 2.57573 4.00628 2.06417
H 6.18119 6.92912 9.35853
H 5.3054 10.8076 0.79311
H 7.51865 10.9431 10.7945
H 0.435707 2.37152 7.83183
H 8.38853 8.31907 3.77128
H 8.3625 12.9849 8.16638
H 4.33472 8.91379 3.24373
H 5.00526 3.33898 6.61278
H 3.74387 7.8246 4.87003
H 1.91408 5.56163 6.27381
H 6.37725 5.35581 5.41451
H 2.14847 5.53793 8.28793
H 6.32466 5.26505 3.39159
H 1.22938 1.73815 6.08438
H 7.58134 9.1268 5.43154
H 11.3499 10.8987 1.99797
H 10.2262 10.9666 9.39902
H 10.9583 12.3811 8.31812
H 10.5593 9.61812 3.13675
H 8.86343 3.9391 2.02461
H 8.86941 6.73143 9.35583
H 9.81826 12.0878 11.2042
H 11.7427 9.74495 0.256834
H 9.7452 10.1564 0.63661
H 11.8088 11.6805 10.8205
H 6.61379 1.8222 2.57862
H 10.9746 9.02645 8.83748
H 7.30455 3.28403 2.94386
H 10.3548 7.55372 8.42067
H 7.27796 2.24365 6.43471
H 10.3225 8.59971 4.93705
H 7.23638 2.45879 4.82166
H 10.3157 8.33255 6.52352
H 9.48276 10.4463 5.89379
H 12.1077 11.5053 5.4586
H 9.59279 11.8098 6.68169
H 11.9329 10.1097 4.722
H 6.90158 4.54966 9.54209
H 10.6313 6.47743 1.8224
H 6.44395 3.42521 8.45484
H 11.054 7.61619 2.93478
H 7.44074 6.06782 11.1674
H 10.1665 4.87555 0.239327
H 7.2778 1.33496 0.333508
H 10.3152 9.59422 11.0664
