118
charge 0
 Al       11.174824       10.846722        7.484179
 Al        4.575108        2.613534        0.366826
 Na        3.225836        3.670501        4.784798
 Na        3.223287        6.858666        5.345551
 Na        8.223789        4.394428        3.976469
 Na        9.779899       10.487982       10.193629
 Na        5.884977        8.266636        6.960468
 Na        9.861932       10.512268        1.429302
 Na        3.729087        8.418251        9.820310
 Na        6.267328        8.083850        3.355757
 Na        5.533840       10.900096        1.212093
 O         4.397188        9.042886        4.900008
 O         5.207860        6.623567        9.817225
 O         8.524118        7.380903        5.717951
 O         8.453080        8.670780       11.174154
 O         7.014651        5.852212        2.609796
 O         4.133985        8.053205        2.191799
 O         3.689331        7.759622        7.394513
 O        10.962719       12.213903        8.582031
 O         2.416747        6.740173        0.436916
 O         3.549417        4.802001       11.078631
 O         5.651556        8.778190        0.176175
 O         6.171126        4.300595       10.763054
 O         5.799517        3.748834        7.829114
 O        10.285852       10.973330        5.971802
 O        10.189518        7.157644        3.850354
 O         4.789363       10.541588        9.561469
 O         7.891885       11.345671        9.022067
 O         7.101623        3.290969        5.593615
 O         8.757692        5.335142        7.518266
 O         8.488220        1.285232        0.180980
 O        11.599205       10.039509        3.060663
 H         3.871469        9.527206        4.182816
 H         7.374656       10.532137        9.139543
 H         7.675246        6.918895        5.497026
 H         6.803525        3.472105        6.540818
 H         1.763716        3.171756        7.309077
 H         3.532699        8.861411        2.522774
 H         8.750412        6.049862        6.833406
 H         5.027239        2.219421        2.673155
 H         3.279310        5.120579       10.207485
 H         7.205091       10.162603        4.738823
 H         5.629896       10.047948        9.504786
 H         6.955965        2.855107        1.946526
 H         6.235348        2.892306        5.223156
 H         7.199840        8.546858        0.691883
 H        10.747885        7.658849        3.237997
 H         3.558990        6.865707        7.754450
 H         4.374549        5.156688        3.015630
 H         5.547231        5.816195        4.925255
 H         5.084219        5.947271        9.136522
 H         8.077656        1.866505        1.652767
 H         1.114664        1.870057        6.626697
 H         2.614796        5.846102        0.777343
 H         4.281575        9.614769        5.696598
 H         4.074203        7.214261        2.736625
 H         8.289859        0.326380        0.114709
 H        11.917760       10.786943        2.532235
 H         9.680127       11.739780        5.726758
 Al        6.512027        5.219979        0.992047
 Al        4.035273        7.738541        0.260431
 Na        9.741119        3.250932        0.559906
 Na        8.558122        9.341733        7.396310
 Na        7.786503       12.618921        7.209799
 Na        7.762749        6.142075        9.758652
 Na        4.395957        2.823127       10.006315
 Na        9.231945        6.573929        1.801869
 Na        8.392055        1.474035        4.599924
 Na        9.719347        9.452723        4.412098
 Na        4.424166       12.973728        9.229228
 O         7.715689        2.346453        2.472459
 O        10.193271        6.937795        9.326109
 O         1.942809        1.744947        3.170081
 O         4.871349        2.131257        5.088307
 O         4.232283       10.891411        6.962344
 O         7.749324        9.904947        3.241977
 O         1.473615        2.763708        6.401312
 O         8.153200        8.669350        1.006563
 O         5.004755        6.086335        0.619767
 O         6.960193       10.193159        5.730614
 O         3.401130        4.130079        0.926760
 O         1.580590        4.366841        2.985213
 O         3.685719        4.959188        6.893629
 O         6.082774        3.542729        0.994660
 O         2.362297        3.621948        8.633005
 O         4.414430        1.717999        2.111854
 O         7.090462        8.471808        8.890869
 O         6.171422        6.150692        5.662122
 O        11.628525        9.274641        0.067411
 O        10.707436        9.335089        8.215807
 O         4.528683        5.801531        3.724591
 H         7.125554        4.394541       10.956019
 H        10.215821        7.852541        8.915628
 H         9.152122        7.275918        4.909238
 H         4.634646        1.511023        4.385470
 H         4.653008       10.726900        7.858220
 H         2.934858        4.082312        1.791631
 H         6.129659       10.694904        5.766142
 H         8.001604        9.135784        1.902941
 H        10.095222        6.322467        8.574703
 H         2.883523        8.448949        7.721104
 H         4.339483        5.318865        0.807335
 H         1.909616        5.238284        3.275965
 H         3.084430        4.547380        7.603961
 H         7.807210       10.820721        2.884663
 H         1.878617        4.234547        9.210719
 H         4.581053        4.594367        7.223365
 H         6.549986       11.755919       10.474356
 H        11.464712       12.293375       10.580269
 H         6.365165        7.942804        9.290714
 H         8.927507        4.503937        7.040583
 H         6.104193        4.113115        8.683455
 H        10.413423       12.980029        8.266685
 H         1.718469        2.715847        3.095629
 H         8.056435        8.637082       10.240929
 H         6.274194        5.395651        6.277252
 H         2.895708        1.747167        2.829616
 H         6.156958        5.769554        3.106679
